# File generated by Flopy version 3.3.6 on 12/30/2022 at 13:26:47.
BEGIN options
  SAVE_FLOWS
  NEWTON  UNDER_RELAXATION
END options

BEGIN packages
  DISV6  freyberg6.disv  disv
  IC6  freyberg6.ic  ic
  NPF6  freyberg6.npf  npf
  RCH6  freyberg6.rcha  rcha_0
  SFR6  freyberg6.sfr  sfr_0
  WEL6  freyberg6.wel  wel_0
  CHD6  freyberg6.chd  chd_0
  OC6  freyberg6.oc  oc
END packages

