# File generated by Flopy version 3.3.6 on 12/30/2022 at 13:26:47.
BEGIN options
END options

BEGIN timing
  TDIS6  freyberg6.tdis
END timing

BEGIN models
  gwf6  freyberg6.nam  freyberg6
END models

BEGIN exchanges
END exchanges

BEGIN solutiongroup  1
  ims6  freyberg6.ims  freyberg6
END solutiongroup  1

