# File generated by Flopy version 3.3.6 on 09/22/2023 at 19:14:14.
BEGIN Options
  LIST  freyberg6.lst
  NEWTON
END Options

BEGIN Packages
  RCH6  freyberg6.rcha  rcha_0
  dis6  freyberg6.dis
  ic6  freyberg6.ic
  npf6  freyberg6.npf
  sto6  freyberg6.sto
  oc6  freyberg6.oc
  ghb6  freyberg6.ghb
  sfr6  freyberg6.sfr  sfr_1
  obs6  freyberg6.obs  head_obs
  WEL6  freyberg6.wel  wel_0
END Packages

