# File generated by Flopy version 3.7.0.dev0 on 05/14/2024 at 15:14:54.
BEGIN options
  auxiliary  CONCENTRATION
  PRINT_INPUT
  PRINT_FLOWS
END options

BEGIN dimensions
  MAXBOUND  2
END dimensions

BEGIN period  1
  1 4 7 1.00000000E-03 5.78700000E+01
  1 11 7 -1.89000000E-02 0.00000000E+00
END period  1

BEGIN period  2
  1 4 7 1.00000000E-03 0.00000000E+00
  1 11 7 -1.89000000E-02 0.00000000E+00
END period  2

