# File generated by Flopy version 3.7.0.dev0 on 05/14/2024 at 15:14:54.
BEGIN options
  BUDGET  FILEOUT  gwf-p09-mf6.bud
  HEAD  FILEOUT  gwf-p09-mf6.hds
  HEAD  PRINT_FORMAT  COLUMNS  10  WIDTH  15  DIGITS  6  GENERAL
END options

BEGIN period  1
  SAVE  HEAD  LAST
  SAVE  BUDGET  LAST
  PRINT  HEAD  LAST
  PRINT  BUDGET  LAST
END period  1

