# File generated by Flopy version 3.7.0.dev0 on 05/14/2024 at 15:14:54.
BEGIN options
  auxiliary  CONCENTRATION
END options

BEGIN dimensions
  MAXBOUND  28
END dimensions

BEGIN period  1
  1 1 1 2.50000000E+02 0.00000000E+00
  1 18 1 2.00000000E+01 0.00000000E+00
  1 1 2 2.50000000E+02 0.00000000E+00
  1 18 2 2.25000000E+01 0.00000000E+00
  1 1 3 2.50000000E+02 0.00000000E+00
  1 18 3 2.50000000E+01 0.00000000E+00
  1 1 4 2.50000000E+02 0.00000000E+00
  1 18 4 2.75000000E+01 0.00000000E+00
  1 1 5 2.50000000E+02 0.00000000E+00
  1 18 5 3.00000000E+01 0.00000000E+00
  1 1 6 2.50000000E+02 0.00000000E+00
  1 18 6 3.25000000E+01 0.00000000E+00
  1 1 7 2.50000000E+02 0.00000000E+00
  1 18 7 3.50000000E+01 0.00000000E+00
  1 1 8 2.50000000E+02 0.00000000E+00
  1 18 8 3.75000000E+01 0.00000000E+00
  1 1 9 2.50000000E+02 0.00000000E+00
  1 18 9 4.00000000E+01 0.00000000E+00
  1 1 10 2.50000000E+02 0.00000000E+00
  1 18 10 4.25000000E+01 0.00000000E+00
  1 1 11 2.50000000E+02 0.00000000E+00
  1 18 11 4.50000000E+01 0.00000000E+00
  1 1 12 2.50000000E+02 0.00000000E+00
  1 18 12 4.75000000E+01 0.00000000E+00
  1 1 13 2.50000000E+02 0.00000000E+00
  1 18 13 5.00000000E+01 0.00000000E+00
  1 1 14 2.50000000E+02 0.00000000E+00
  1 18 14 5.25000000E+01 0.00000000E+00
END period  1

