# File generated by Flopy version 3.7.0.dev0 on 05/14/2024 at 15:14:54.
BEGIN options
  SAVE_FLOWS
END options

BEGIN packages
  DIS6  gwt-p09-mf6.dis  dis
  IC6  gwt-p09-mf6.ic  ic
  ADV6  gwt-p09-mf6.adv  adv
  DSP6  gwt-p09-mf6.dsp  dsp
  MST6  gwt-p09-mf6.mst  mst
  SSM6  gwt-p09-mf6.ssm  ssm
  OC6  gwt-p09-mf6.oc  oc
END packages

