# File generated by Flopy version 3.7.0.dev0 on 05/14/2024 at 15:14:54.
BEGIN griddata
  strt
    CONSTANT       0.00000000
END griddata

