# File generated by Flopy version 3.7.0.dev0 on 05/14/2024 at 15:14:54.
BEGIN options
END options

BEGIN timing
  TDIS6  temp.tdis
END timing

BEGIN models
  gwf6  gwf-p09-mf6.nam  gwf-p09-mf6
  gwt6  gwt-p09-mf6.nam  gwt-p09-mf6
END models

BEGIN exchanges
  GWF6-GWT6  p09-mf6.gwfgwt  gwf-p09-mf6  gwt-p09-mf6
END exchanges

BEGIN solutiongroup  1
  ims6  gwf-p09-mf6.ims  gwf-p09-mf6
  ims6  gwt-p09-mf6.ims  gwt-p09-mf6
END solutiongroup  1

