# File generated by Flopy version 3.7.0.dev0 on 05/14/2024 at 15:14:54.
BEGIN options
  TIME_UNITS  seconds
END options

BEGIN dimensions
  NPER  24
END dimensions

BEGIN perioddata
  100  1       1.00000000
  100  1       1.00000000
  100  1       1.00000000
  100  1       1.00000000
  100  1       1.00000000
  100  1       1.00000000
  100  1       1.00000000
  100  1       1.00000000
  100  1       1.00000000
  100  1       1.00000000
  100  1       1.00000000
  100  1       1.00000000
  100  1       1.00000000
  100  1       1.00000000
  100  1       1.00000000
  100  1       1.00000000
  100  1       1.00000000
  100  1       1.00000000
  100  1       1.00000000
  100  1       1.00000000
  100  1       1.00000000
  100  1       1.00000000
  100  1       1.00000000
  100  1       1.00000000
END perioddata

