# File generated by Flopy version 3.3.6 on 09/22/2023 at 19:14:14.
BEGIN Options
  TIME_UNITS  days
END Options

BEGIN Dimensions
  NPER  25
END Dimensions

BEGIN PERIODDATA
       30.00000000  1       1.00000000  NSTP TSMULT
       30.00000000  1       1.00000000  NSTP TSMULT
       30.00000000  1       1.00000000  NSTP TSMULT
       30.00000000  1       1.00000000  NSTP TSMULT
       30.00000000  1       1.00000000  NSTP TSMULT
       30.00000000  1       1.00000000  NSTP TSMULT
       30.00000000  1       1.00000000  NSTP TSMULT
       30.00000000  1       1.00000000  NSTP TSMULT
       30.00000000  1       1.00000000  NSTP TSMULT
       30.00000000  1       1.00000000  NSTP TSMULT
       30.00000000  1       1.00000000  NSTP TSMULT
       30.00000000  1       1.00000000  NSTP TSMULT
       30.00000000  1       1.00000000  NSTP TSMULT
       30.00000000  1       1.00000000  NSTP TSMULT
       30.00000000  1       1.00000000  NSTP TSMULT
       30.00000000  1       1.00000000  NSTP TSMULT
       30.00000000  1       1.00000000  NSTP TSMULT
       30.00000000  1       1.00000000  NSTP TSMULT
       30.00000000  1       1.00000000  NSTP TSMULT
       30.00000000  1       1.00000000  NSTP TSMULT
       30.00000000  1       1.00000000  NSTP TSMULT
       30.00000000  1       1.00000000  NSTP TSMULT
       30.00000000  1       1.00000000  NSTP TSMULT
       30.00000000  1       1.00000000  NSTP TSMULT
       30.00000000  1       1.00000000  NSTP TSMULT
END PERIODDATA

