# file generated by flopy version 3.3.6 on 12/30/2022 at 13:26:49.
begin options
  print_input
end options

begin continuous  fileout  sfr.csv
    open/close  'freyberg6.sfr.obs_continuous_sfr_obs.csv.txt'
end continuous  fileout  sfr.csv

