# file generated by flopy version 3.3.6 on 12/30/2022 at 13:26:47.
begin options
  print_option  all
end options

begin nonlinear
  outer_maximum  100
  outer_hclose 0.01
end nonlinear

begin linear
  inner_maximum  100
  linear_acceleration  bicgstab
  inner_hclose 0.01
end linear

