# file generated by flopy version 3.3.6 on 12/30/2022 at 13:26:47.
begin options
  save_flows
  newton  under_relaxation
end options

begin packages
  disv6  freyberg6.disv  disv
  ic6  freyberg6.ic  ic
  npf6  freyberg6.npf  npf
  rch6  freyberg6.rcha  rcha_0
  sfr6  freyberg6.sfr  sfr_0
  wel6  freyberg6.wel  wel_0
  chd6  freyberg6.chd  chd_0
  oc6  freyberg6.oc  oc
obs6  freyberg6.obs  head_obs
sto6  freyberg6.sto
end packages

