# file generated by flopy version 3.3.6 on 12/30/2022 at 13:26:49.
begin options
  budget  fileout  freyberg6.cbc
  head  fileout  freyberg6.hds
end options

begin period  1
  save  head  all
  save  budget  all
end period  1

