# file generated by flopy version 3.3.6 on 12/30/2022 at 13:26:49.
begin options
  save_specific_discharge
end options

begin griddata
  icelltype
    open/close  'freyberg6.npf_icelltype.txt'  factor  1
  k  layered
    open/close  'freyberg6.npf_k_layer1.txt'  factor  1.0
    open/close  'freyberg6.npf_k_layer2.txt'  factor  1.0
    open/close  'freyberg6.npf_k_layer3.txt'  factor  1.0
end griddata

