# file generated by flopy version 3.3.6 on 12/30/2022 at 13:26:49.
begin options
end options

begin dimensions
  maxbound  56
end dimensions

begin period  1
    open/close  'freyberg6.chd_stress_period_data_1.txt'
end period  1

