# file generated by flopy version 3.3.6 on 12/30/2022 at 13:26:49.
begin griddata
  strt  layered
    open/close  'freyberg6.ic_strt_layer1.txt'  factor  1.0
    open/close  'freyberg6.ic_strt_layer2.txt'  factor  1.0
    open/close  'freyberg6.ic_strt_layer3.txt'  factor  1.0
end griddata

