# file generated by flopy version 3.3.6 on 12/30/2022 at 13:26:47.
begin options
  continue
end options

begin timing
  tdis6  freyberg6.tdis
end timing

begin models
  gwf6  freyberg6.nam  freyberg6
end models

begin exchanges
end exchanges

begin solutiongroup  1
  ims6  freyberg6.ims  freyberg6
end solutiongroup  1

